/*--------------------------------*- C++ -*----------------------------------*\
  =========                 |
  \\      /  F ield         | OpenFOAM: The Open Source CFD Toolbox
   \\    /   O peration     | Website:  https://openfoam.org
    \\  /    A nd           | Version:  9
     \\/     M anipulation  |
\*---------------------------------------------------------------------------*/
FoamFile
{
    format      binary;
    class       polyBoundaryMesh;
    location    "constant/polyMesh";
    object      boundary;
}
// * * * * * * * * * * * * * * * * * * * * * * * * * * * * * * * * * * * * * //

6
(
    frontAndBack
    {
        type            patch;
        nFaces          444;
        startFace       1785768;
    }
    outlet
    {
        type            patch;
        nFaces          72;
        startFace       1786212;
    }
    inlet
    {
        type            patch;
        nFaces          144;
        startFace       1786284;
    }
    lowerWall
    {
        type            wall;
        inGroups        List<word> 1(wall);
        nFaces          178;
        startFace       1786428;
    }
    upperWall
    {
        type            patch;
        nFaces          178;
        startFace       1786606;
    }
    Part1
    {
        type            wall;
        inGroups        List<word> 
2
(
motorBikeGroup
wall
)
;
        nFaces          110052;
        startFace       1786784;
    }
)

// ************************************************************************* //
